
######## before change #############

sim_num_insn              279373007 # total number of instructions executed
sim_num_refs              109106589 # total number of loads and stores executed
sim_elapsed_time                 24 # total simulation time in seconds
sim_inst_rate          11640541.9583 # simulation speed (in insts/sec)
sim_num_loads              71001838 # total number of load instructions
sim_load_ratio               0.2541 # load instructions fraction
sim_num_lduh               93015639 # total number of load use hazards
sim_load_use_ratio           0.3329 # load use fraction
sim_num_RAW_hazard_q1      99234603 # total number of RAW hazards (q1)
sim_num_RAW_hazard_q2             0 # total number of RAW hazards (q2)
sim_RAW_stalls            184436782 # total number of RAW hazard stalls (q1)
CPI_from_RAW_hazard_q1       1.6602 # CPI from RAW hazard (q1)
CPI_from_RAW_hazard_q2       1.0000 # CPI from RAW hazard (q2)
ld_text_base             0x00400000 # program text (code) segment base
ld_text_size                2166768 # program text (code) size in bytes
ld_data_base             0x10000000 # program initialized data segment base
ld_data_size                 264644 # program init'ed `.data' and uninit'ed `.bss' size in bytes
ld_stack_base            0x7fffc000 # program stack segment base (highest address in stack)
ld_stack_size                 16384 # program initial stack size
ld_prog_entry            0x00400140 # program entry point (initial PC)
ld_environ_base          0x7fff8000 # program environment base address address
ld_target_big_endian              0 # target executable endian-ness, non-zero if big endian
mem.page_count                  875 # total number of pages allocated
mem.page_mem                  3500k # total size of memory pages allocated
mem.ptab_misses                 894 # total first level page table misses
mem.ptab_accesses        1341120003 # total page table accesses
mem.ptab_miss_rate           0.0000 # first level page table miss rate

######## after change #############

sim_num_insn              279373007 # total number of instructions executed
sim_num_refs              109106589 # total number of loads and stores executed
sim_elapsed_time                 39 # total simulation time in seconds
sim_inst_rate          7163410.4359 # simulation speed (in insts/sec)
sim_num_loads              71001838 # total number of load instructions
sim_load_ratio               0.2541 # load instructions fraction
sim_num_lduh               93015639 # total number of load use hazards
sim_load_use_ratio           0.3329 # load use fraction
sim_num_RAW_hazard_q1      99234603 # total number of RAW hazards (q1)
sim_num_RAW_hazard_q2      91581557 # total number of RAW hazards (q2)
sim_RAW_stalls            189324534 # total number of RAW hazard stalls (q1)
sim_RAW_stalls_q2         142279587 # total number of RAW hazard stalls (q2)
CPI_from_RAW_hazard_q1       1.6777 # CPI from RAW hazard (q1)
CPI_from_RAW_hazard_q2       1.5093 # CPI from RAW hazard (q2)
ld_text_base             0x00400000 # program text (code) segment base
ld_text_size                2166768 # program text (code) size in bytes
ld_data_base             0x10000000 # program initialized data segment base
ld_data_size                 264644 # program init'ed `.data' and uninit'ed `.bss' size in bytes
ld_stack_base            0x7fffc000 # program stack segment base (highest address in stack)
ld_stack_size                 16384 # program initial stack size
ld_prog_entry            0x00400140 # program entry point (initial PC)
ld_environ_base          0x7fff8000 # program environment base address address
ld_target_big_endian              0 # target executable endian-ness, non-zero if big endian
mem.page_count                  875 # total number of pages allocated
mem.page_mem                  3500k # total size of memory pages allocated
mem.ptab_misses                 894 # total first level page table misses
mem.ptab_accesses        1341120003 # total page table accesses
mem.ptab_miss_rate           0.0000 # first level page table miss rate

